Version 4
SHEET 1 880 680
WIRE -96 -16 -128 -16
WIRE 0 -16 -16 -16
WIRE 112 -16 0 -16
WIRE 304 -16 112 -16
WIRE 0 16 0 -16
WIRE 304 32 304 -16
WIRE -128 96 -128 -16
WIRE 112 96 112 -16
WIRE 0 128 0 96
WIRE 80 128 0 128
WIRE 0 176 0 128
WIRE -128 272 -128 176
WIRE 0 272 0 256
WIRE 0 272 -128 272
WIRE 112 272 112 160
WIRE 112 272 0 272
WIRE 304 272 304 112
WIRE 304 272 112 272
WIRE 0 288 0 272
FLAG 0 288 0
SYMBOL References\\LT1009 112 128 M0
SYMATTR InstName U1
SYMBOL res 0 -32 R90
WINDOW 0 0 56 VBottom 2
WINDOW 3 32 56 VTop 2
SYMATTR InstName R1
SYMATTR Value 17
SYMBOL res 320 128 R180
WINDOW 0 36 76 Left 2
WINDOW 3 36 40 Left 2
SYMATTR InstName R2
SYMATTR Value 18R333
SYMBOL res 16 112 R180
WINDOW 0 36 76 Left 2
WINDOW 3 36 40 Left 2
SYMATTR InstName R3
SYMATTR Value 1Meg
SYMBOL res 16 272 R180
WINDOW 0 36 76 Left 2
WINDOW 3 36 40 Left 2
SYMATTR InstName R4
SYMATTR Value 1961k538
SYMBOL voltage -128 80 R0
SYMATTR InstName V1
SYMATTR Value 5V
TEXT -162 312 Left 2 !.tran 0 1 0
